<?xml version="1.0"?>
<routes>
	<route id="1" town="Town10HD_Opt">
		<vehicle model="tram" rolename="hero" />
		<waypoint x="106.3629150390625" y="-7.453525066375732" z="0.0" pitch="0.0" roll="0.0" yaw="0.9253500800502136"/>
		<waypoint x="-23.97303009033203" y="-64.77361297607422" z="0.0" pitch="0.0" roll="0.0" yaw="270.2967860630607"/>
		<waypoint x="-49.0252685546875" y="-3.709759473800659" z="0.0" pitch="0.0" roll="0.0" yaw="180.1065422996302"/>
		<waypoint x="-20.90695571899414" y="24.84869384765625" z="0.0" pitch="0.0" roll="0.0" yaw="89.68511712336223"/>
		<waypoint x="70.66168975830078" y="25.27648162841797" z="0.0" pitch="0.0" roll="0.0" yaw="89.18362414393239"/>
		<waypoint x="106.27581024169922" y="-4.0931878089904785" z="0.0" pitch="0.0" roll="0.0" yaw="3.5430951048167647"/>
		<waypoint x="106.67747497558594" y="-22.042917251586914" z="0.0" pitch="0.0" roll="0.0" yaw="359.9072287282272"/>
		<waypoint x="-11.30272388458252" y="-64.73238372802734" z="0.0" pitch="0.0" roll="0.0" yaw="270.42303527967925"/>
	</route>
	<route id="2" town="Town10HD_Opt">	
		<vehicle model="tram" rolename="hero" />
		<waypoint pitch="0.0" roll="0.0" x="106.47071075439453" y="-1.68910813331604" yaw="0.21579998690911154" z="0.0"/>
		<waypoint pitch="0.0" roll="0.0" x="106.45304107666016" y="-11.651480674743652" yaw="359.9802297900763" z="0.0"/>
		<waypoint pitch="0.0" roll="0.0" x="106.46864318847656" y="-19.645668029785156" yaw="0.21214208710323915" z="0.0"/>
		<waypoint pitch="0.0" roll="0.0" x="105.50524139404297" y="-30.730682373046875" yaw="350.2627010918457" z="0.0"/>
		<waypoint pitch="0.0" roll="0.0" x="101.55123138427734" y="-42.19386291503906" yaw="334.08905902406565" z="0.0"/>
		<waypoint pitch="0.0" roll="0.0" x="95.86426544189453" y="-50.39396286010742" yaw="319.91264623186737" z="0.0"/>
		<waypoint pitch="0.0" roll="0.0" x="90.34494018554688" y="-55.593299865722656" yaw="309.39467400442464" z="0.0"/>
		<waypoint pitch="0.0" roll="0.0" x="83.82440948486328" y="-59.71553421020508" yaw="298.593194284913" z="0.0"/>
		<waypoint pitch="0.0" roll="0.0" x="78.38782501220703" y="-62.00056838989258" yaw="290.24779594942464" z="0.0"/>
		<waypoint pitch="0.0" roll="0.0" x="72.06653594970703" y="-63.60768508911133" yaw="281.83119972202803" z="0.0"/>
		<waypoint pitch="0.0" roll="0.0" x="64.77064514160156" y="-64.275390625" yaw="273.36283066072275" z="0.0"/>
		<waypoint pitch="0.0" roll="0.0" x="58.44416809082031" y="-64.39962005615234" yaw="270.58816193305347" z="0.0"/>
		<waypoint pitch="0.0" roll="0.0" x="49.60174560546875" y="-64.42167663574219" yaw="270.0215840810226" z="0.0"/>
		<waypoint pitch="0.0" roll="0.0" x="35.03113555908203" y="-64.41319274902344" yaw="269.9840180405875" z="0.0"/>
		<waypoint pitch="0.0" roll="0.0" x="20.495012283325195" y="-64.40547943115234" yaw="269.9654126052884" z="0.0"/>
		<waypoint pitch="0.0" roll="0.0" x="9.750106811523438" y="-64.41142272949219" yaw="270.1485163165581" z="0.0"/>
		<waypoint pitch="0.0" roll="0.0" x="-2.2338645458221436" y="-64.51367950439453" yaw="270.5707586110483" z="0.0"/>
		<waypoint pitch="0.0" roll="0.0" x="-13.591215133666992" y="-64.6353759765625" yaw="270.592041480502" z="0.0"/>
		<waypoint pitch="0.0" roll="0.0" x="-21.51158332824707" y="-64.71907806396484" yaw="270.61832404842824" z="0.0"/>
		<waypoint pitch="0.0" roll="0.0" x="-25.410751342773438" y="-64.7598648071289" yaw="270.59108525401825" z="0.0"/>
		<waypoint pitch="0.0" roll="0.0" x="-60.511497497558594" y="-65.1242446899414" yaw="270.56748012024667" z="0.0"/>
		<waypoint pitch="0.0" roll="0.0" x="-71.9923324584961" y="-64.99718475341797" yaw="267.02302175236025" z="0.0"/>
		<waypoint pitch="0.0" roll="0.0" x="-85.92816925048828" y="-61.60574722290039" yaw="247.15432930587332" z="0.0"/>
		<waypoint pitch="0.0" roll="0.0" x="-97.29557037353516" y="-53.42789077758789" yaw="224.8917101968103" z="0.0"/>
		<waypoint pitch="0.0" roll="0.0" x="-105.63707733154297" y="-40.9100341796875" yaw="206.08572688328564" z="0.0"/>
		<waypoint pitch="0.0" roll="0.0" x="-109.25326538085938" y="-28.356229782104492" yaw="189.4442578384947" z="0.0"/>
		<waypoint pitch="0.0" roll="0.0" x="-109.99568939208984" y="-18.09775161743164" yaw="181.771127702254" z="0.0"/>
		<waypoint pitch="0.0" roll="0.0" x="-110.1884536743164" y="-5.478285789489746" yaw="180.6832971335244" z="0.0"/>
		<waypoint pitch="0.0" roll="0.0" x="-110.27350616455078" y="2.797590970993042" yaw="180.61992663840502" z="0.0"/>
		<waypoint pitch="0.0" roll="0.0" x="-110.39620971679688" y="13.418946266174316" yaw="180.60491388260934" z="0.0"/>
		<waypoint pitch="0.0" roll="0.0" x="-110.53614807128906" y="26.186166763305664" yaw="180.6395019605663" z="0.0"/>
		<waypoint pitch="0.0" roll="0.0" x="-110.64903259277344" y="36.356727600097656" yaw="180.67465011403516" z="0.0"/>
		<waypoint pitch="0.0" roll="0.0" x="-110.75148010253906" y="45.481971740722656" yaw="180.66176837726053" z="0.0"/>
		<waypoint pitch="0.0" roll="0.0" x="-110.87669372558594" y="56.64185333251953" yaw="180.64194716828916" z="0.0"/>
		<waypoint pitch="0.0" roll="0.0" x="-111.02630615234375" y="70.06464385986328" yaw="180.63335479031326" z="0.0"/>
		<waypoint pitch="0.0" roll="0.0" x="-110.67212677001953" y="82.47927856445312" yaw="174.8360131662115" z="0.0"/>
		<waypoint pitch="0.0" roll="0.0" x="-108.85565185546875" y="93.87416076660156" yaw="167.1009058934421" z="0.0"/>
		<waypoint pitch="0.0" roll="0.0" x="-105.04100036621094" y="105.35906219482422" yaw="157.6493720822485" z="0.0"/>
		<waypoint pitch="0.0" roll="0.0" x="-97.80169677734375" y="118.28736877441406" yaw="145.1525164673347" z="0.0"/>
		<waypoint pitch="0.0" roll="0.0" x="-88.71800231933594" y="127.64470672607422" yaw="128.53831353771045" z="0.0"/>
		<waypoint pitch="0.0" roll="0.0" x="-78.17000579833984" y="133.60496520996094" yaw="113.206956737998" z="0.0"/>
		<waypoint pitch="0.0" roll="0.0" x="-67.4167709350586" y="136.431396484375" yaw="99.47331095874577" z="0.0"/>
		<waypoint pitch="0.0" roll="0.0" x="-58.58732223510742" y="136.8497314453125" yaw="91.56909503231603" z="0.0"/>
		<waypoint pitch="0.0" roll="0.0" x="-35.65522766113281" y="136.99432373046875" yaw="90.31965535763476" z="0.0"/>
		<waypoint pitch="0.0" roll="0.0" x="-19.64865493774414" y="137.0895233154297" yaw="90.32581618826612" z="0.0"/>
		<waypoint pitch="0.0" roll="0.0" x="-8.592389106750488" y="137.157470703125" yaw="90.35530894510222" z="0.0"/>
		<waypoint pitch="0.0" roll="0.0" x="39.60517120361328" y="137.54527282714844" yaw="90.45741344300475" z="0.0"/>
		<waypoint pitch="0.0" roll="0.0" x="50.732303619384766" y="137.62924194335938" yaw="90.37628445604334" z="0.0"/>
		<waypoint pitch="0.0" roll="0.0" x="61.69197463989258" y="137.6398162841797" yaw="88.73342588516934" z="0.0"/>
		<waypoint pitch="0.0" roll="0.0" x="73.66643524169922" y="136.37298583984375" yaw="78.4974380176106" z="0.0"/>
		<waypoint pitch="0.0" roll="0.0" x="84.54747772216797" y="131.91033935546875" yaw="60.65813820750703" z="0.0"/>
		<waypoint pitch="0.0" roll="0.0" x="93.27920532226562" y="124.6031494140625" yaw="42.212761561402374" z="0.0"/>
		<waypoint pitch="0.0" roll="0.0" x="98.97089385986328" y="116.37822723388672" yaw="31.225985639897495" z="0.0"/>
		<waypoint pitch="0.0" roll="0.0" x="104.86148834228516" y="100.08695220947266" yaw="10.406430969428175" z="0.0"/>
		<waypoint pitch="0.0" roll="0.0" x="105.76922607421875" y="84.8895263671875" yaw="359.95154299556225" z="0.0"/>
		<waypoint pitch="0.0" roll="0.0" x="105.89102172851562" y="48.998046875" yaw="1.849491216617335" z="0.0"/>
		<waypoint pitch="0.0" roll="0.0" x="106.12843322753906" y="32.65034866333008" yaw="0.35990873414460894" z="0.0"/>
		<waypoint pitch="0.0" roll="0.0" x="106.22178649902344" y="21.005475997924805" yaw="0.38461339497041286" z="0.0"/>
		<waypoint pitch="0.0" roll="0.0" x="106.28671264648438" y="11.694368362426758" yaw="0.4083037727044699" z="0.0"/>
		<waypoint pitch="0.0" roll="0.0" x="106.3343734741211" y="4.714565277099609" yaw="0.39117123034727136" z="0.0"/>
		<waypoint pitch="0.0" roll="0.0" x="106.38314819335938" y="-2.461416482925415" yaw="0.4078242720803938" z="0.0"/>
	</route>
</routes>
