<?xml version="1.0"?>
<routes>
	<route id="0" town="Town10HD">
		<waypoint x="-114.4" y="57.7" z="0.0" pitch="0.0" roll="0.0" yaw="180.0" />
		<waypoint x="-114.7" y="75.3" z="0.0" pitch="0.0" roll="0.0" yaw="180.0" />
		<waypoint x="-57.2" y="140.4" z="0.0" pitch="0.0" roll="0.0" yaw="90.0" />
		<waypoint x="61.2" y="141.3" z="0.0" pitch="0.0" roll="0.0" yaw="90.0" />
		<waypoint x="109.4" y="89.0" z="0.0" pitch="0.0" roll="0.0" yaw="0.0" />
		<waypoint x="109.6" y="45.2" z="0.0" pitch="0.0" roll="0.0" yaw="0.0" />
		<waypoint x="83.1" y="13.3" z="0.0" pitch="0.0" roll="0.0" yaw="-90.0" />
		<waypoint x="-26.7" y="13.2" z="0.0" pitch="0.0" roll="0.0" yaw="-90.0" />
		<waypoint x="-41.7" y="-2.1" z="0.0" pitch="0.0" roll="0.0" yaw="0.0" />
		<waypoint x="-41.4" y="-41.2" z="0.0" pitch="0.0" roll="0.0" yaw="0.0" />
		<waypoint x="-67.1" y="-68.9" z="0.0" pitch="0.0" roll="0.0" yaw="-90.0" />
		<waypoint x="-113.8" y="-4.8" z="0.0" pitch="0.0" roll="0.0" yaw="180.0" />
	</route>
	<route id="1" town="Town10HD">
		<waypoint x="109.9" y="-1.4" z="0.0" pitch="0.0" roll="0.0" yaw="0.0" />
		<waypoint x="110.0" y="-23.3" z="0.0" pitch="0.0" roll="0.0" yaw="0.0" />
		<waypoint x="66.7" y="-68.0" z="0.0" pitch="0.0" roll="0.0" yaw="-90.0" />
		<waypoint x="-24.2" y="-68.3" z="0.0" pitch="0.0" roll="0.0" yaw="-89.0" />
		<waypoint x="-52.1" y="-43.9" z="0.0" pitch="0.0" roll="0.0" yaw="180.0" />
		<waypoint x="-52.4" y="-3.9" z="0.0" pitch="0.0" roll="0.0" yaw="179.0" />
		<waypoint x="-28.9" y="28.2" z="0.0" pitch="0.0" roll="0.0" yaw="90.0" />
		<waypoint x="81.7" y="28.4" z="0.0" pitch="0.0" roll="0.0" yaw="91.0" />
	</route>
	<route id="2" town="Town10HD">
		<waypoint x="109.9" y="-1.4" z="0.0" pitch="0.0" roll="0.0" yaw="0.0" />
		<waypoint x="110.0" y="-23.3" z="0.0" pitch="0.0" roll="0.0" yaw="0.0" />
		<waypoint x="66.7" y="-68.0" z="0.0" pitch="0.0" roll="0.0" yaw="-90.0" />
		<waypoint x="-24.2" y="-68.3" z="0.0" pitch="0.0" roll="0.0" yaw="-89.0" />
		<waypoint x="-52.1" y="-43.9" z="0.0" pitch="0.0" roll="0.0" yaw="180.0" />
		<waypoint x="-52.4" y="-3.9" z="0.0" pitch="0.0" roll="0.0" yaw="179.0" />
		<waypoint x="-52.3" y="40.3" z="0.0" pitch="0.0" roll="0.0" yaw="179.0" />
		<waypoint x="-52.1" y="111.9" z="0.0" pitch="0.0" roll="0.0" yaw="179.0" />
		<waypoint x="-24.4" y="140.7" z="0.0" pitch="0.0" roll="0.0" yaw="90.0" />
		<waypoint x="62.4" y="141.2" z="0.0" pitch="0.0" roll="0.0" yaw="92.0" />
		<waypoint x="109.4" y="93.2" z="0.0" pitch="0.0" roll="0.0" yaw="0.0" />
		<waypoint x="109.6" y="44.5" z="0.0" pitch="0.0" roll="0.0" yaw="0.0" />
	</route>
	<route id="3" town="Town10HD">
		<waypoint x="109.9" y="-1.4" z="0.0" pitch="0.0" roll="0.0" yaw="0.0" />
		<waypoint x="110.0" y="-23.3" z="0.0" pitch="0.0" roll="0.0" yaw="0.0" />
		<waypoint x="66.7" y="-68.0" z="0.0" pitch="0.0" roll="0.0" yaw="-90.0" />
		<waypoint x="-24.2" y="-68.3" z="0.0" pitch="0.0" roll="0.0" yaw="-89.0" />
		<waypoint x="-66.1" y="-68.7" z="0.0" pitch="0.0" roll="0.0" yaw="-90.0" />
		<waypoint x="-113.7" y="-3.7" z="0.0" pitch="0.0" roll="0.0" yaw="181.0" />
		<waypoint x="-114.2" y="43.3" z="0.0" pitch="0.0" roll="0.0" yaw="181.0" />
		<waypoint x="-114.5" y="74.6" z="0.0" pitch="0.0" roll="0.0" yaw="181.0" />
		<waypoint x="-64.6" y="140.4" z="0.0" pitch="0.0" roll="0.0" yaw="90.0" />
		<waypoint x="-24.4" y="140.7" z="0.0" pitch="0.0" roll="0.0" yaw="90.0" />
		<waypoint x="62.4" y="141.2" z="0.0" pitch="0.0" roll="0.0" yaw="92.0" />
		<waypoint x="109.4" y="93.2" z="0.0" pitch="0.0" roll="0.0" yaw="0.0" />
		<waypoint x="109.6" y="44.5" z="0.0" pitch="0.0" roll="0.0" yaw="0.0" />
	</route>
</routes>
