<?xml version="1.0"?>
<routes>
	<route id="1" town="Town10HD_Opt">
		<vehicle model="vehicle.tram.tram" category="car" rolename="hero" />
		<waypoint x="72.97303009033203" y="-63.837361297607422" z="0.0" pitch="0.0" roll="0.0" yaw="180.2967860630607"/>
		<waypoint x="-23.97303009033203" y="-64.77361297607422" z="0.0" pitch="0.0" roll="0.0" yaw="180.2967860630607"/>
		<waypoint x="-49.0252685546875" y="-3.709759473800659" z="0.0" pitch="0.0" roll="0.0" yaw="90.1065422996302"/>
		<waypoint x="-20.90695571899414" y="24.84869384765625" z="0.0" pitch="0.0" roll="0.0" yaw="359.68511712336223"/>
		<waypoint x="70.66168975830078" y="25.27648162841797" z="0.0" pitch="0.0" roll="0.0" yaw="359.18362414393239"/>
		<waypoint x="106.27581024169922" y="-4.0931878089904785" z="0.0" pitch="0.0" roll="0.0" yaw="273.5430951048167647"/>
		<waypoint x="106.67747497558594" y="-22.042917251586914" z="0.0" pitch="0.0" roll="0.0" yaw="269.9072287282272"/>
		<waypoint x="52.97303009033203" y="-63.837361297607422" z="0.0" pitch="0.0" roll="0.0" yaw="180.2967860630607"/>
	</route>
	<route id="2" town="Town10HD_Opt">	
		<vehicle model="vehicle.tram.tram" category="car" rolename="hero" />
		<waypoint x="72.97303009033203" y="-63.837361297607422" z="0.0" pitch="0.0" roll="0.0" yaw="180.2967860630607"/>
		<waypoint x="60.15979766845703" y="-64.65705871582031" z="0.0" pitch="0.0" roll="0.0" yaw="179.58742993661986"/>
		<waypoint x="-68.05529022216797" y="-65.3099365234375" z="0.0" pitch="0.0" roll="0.0" yaw="181.08949781813243"/>
		<waypoint x="-110.6856689453125" y="-2.9126107692718506" z="0.0" pitch="0.0" roll="0.0" yaw="88.65753132759033"/>
		<waypoint x="-110.74674224853516" y="72.46381378173828" z="0.0" pitch="0.0" roll="0.0" yaw="91.58400783975233"/>
		<waypoint x="-47.98893356323242" y="137.02362060546875" z="0.0" pitch="0.0" roll="0.0" yaw="1.7339074969884365"/>
		<waypoint x="58.53078842163086" y="137.68846130371094" z="0.0" pitch="0.0" roll="0.0" yaw="0.6540887401552737"/>
		<waypoint x="106.21945190429688" y="45.48806381225586" z="0.0" pitch="0.0" roll="0.0" yaw="268.9200751478636"/>
		<waypoint x="106.35066223144531" y="-6.2873687744140625" z="0.0" pitch="0.0" roll="0.0" yaw="269.7761983791897"/>
		<waypoint x="52.97303009033203" y="-63.837361297607422" z="0.0" pitch="0.0" roll="0.0" yaw="180.2967860630607"/>
	</route>
</routes>
